Version 4
SHEET 1 1008 968
WIRE 224 64 176 64
WIRE -256 80 -256 48
WIRE 448 80 288 80
WIRE 480 80 448 80
WIRE 576 80 560 80
WIRE 608 80 576 80
WIRE 736 80 688 80
WIRE 224 96 80 96
WIRE 176 208 176 64
WIRE 304 208 176 208
WIRE 448 208 448 80
WIRE 448 208 384 208
WIRE 576 208 576 80
WIRE 624 208 576 208
WIRE -256 224 -256 160
WIRE -256 224 -320 224
WIRE 736 224 736 80
WIRE 736 224 688 224
WIRE 832 224 736 224
WIRE 624 240 576 240
WIRE -256 288 -256 224
WIRE 304 288 176 288
WIRE 448 288 384 288
WIRE 176 384 176 288
WIRE 224 384 176 384
WIRE 448 400 448 288
WIRE 448 400 288 400
WIRE 480 400 448 400
WIRE 576 400 576 240
WIRE 576 400 560 400
WIRE 640 400 576 400
WIRE 752 400 720 400
WIRE -256 416 -256 368
WIRE 224 416 80 416
WIRE 752 448 752 400
WIRE -352 688 -352 640
WIRE -192 688 -192 640
WIRE 368 688 96 688
WIRE 368 720 272 720
WIRE 272 736 272 720
WIRE 592 768 544 768
WIRE 368 816 272 816
WIRE -352 832 -352 768
WIRE -192 832 -192 768
WIRE 368 848 96 848
FLAG 80 96 Eingang1
IOPIN 80 96 In
FLAG 80 416 Eingang2
IOPIN 80 416 In
FLAG 752 448 0
FLAG 832 224 Ausgang1
IOPIN 832 224 Out
FLAG 256 48 V+
IOPIN 256 48 In
FLAG 256 368 V+
IOPIN 256 368 In
FLAG 256 432 V-
IOPIN 256 432 In
FLAG 256 112 V-
IOPIN 256 112 In
FLAG -320 224 0
FLAG -256 48 V+
IOPIN -256 48 Out
FLAG -256 416 V-
IOPIN -256 416 Out
FLAG 592 768 Ausgang2
IOPIN 592 768 Out
FLAG 400 672 V+
IOPIN 400 672 In
FLAG 400 864 V-
IOPIN 400 864 In
FLAG 480 832 0
FLAG -352 832 0
FLAG -192 832 0
FLAG -192 640 Eingang1
IOPIN -192 640 Out
FLAG -352 640 Eingang2
IOPIN -352 640 Out
FLAG 96 688 Eingang1
IOPIN 96 688 In
FLAG 96 848 Eingang2
IOPIN 96 848 In
SYMBOL OpAmps\\ADTL084 256 16 R0
SYMATTR InstName U1
SYMBOL OpAmps\\ADTL084 256 336 R0
SYMATTR InstName U2
SYMBOL OpAmps\\ADTL084 656 160 R0
SYMATTR InstName U3
SYMBOL res 160 192 R0
SYMATTR InstName R5
SYMATTR Value 680
SYMBOL res 400 192 R90
WINDOW 0 0 56 VBottom 2
WINDOW 3 32 56 VTop 2
SYMATTR InstName R6
SYMATTR Value 33k
SYMBOL res 400 272 R90
WINDOW 0 0 56 VBottom 2
WINDOW 3 32 56 VTop 2
SYMATTR InstName R7
SYMATTR Value 33k
SYMBOL res 576 64 R90
WINDOW 0 0 56 VBottom 2
WINDOW 3 32 56 VTop 2
SYMATTR InstName R1
SYMATTR Value 1.5k
SYMBOL res 576 384 R90
WINDOW 0 0 56 VBottom 2
WINDOW 3 32 56 VTop 2
SYMATTR InstName R2
SYMATTR Value 1.5k
SYMBOL res 736 384 R90
WINDOW 0 0 56 VBottom 2
WINDOW 3 32 56 VTop 2
SYMATTR InstName R4
SYMATTR Value 1.5k
SYMBOL res 704 64 R90
WINDOW 0 0 56 VBottom 2
WINDOW 3 32 56 VTop 2
SYMATTR InstName R3
SYMATTR Value 1.5k
SYMBOL voltage -256 64 R0
WINDOW 123 0 0 Left 0
WINDOW 39 0 0 Left 0
SYMATTR InstName V1
SYMATTR Value 12
SYMBOL voltage -256 272 R0
WINDOW 123 0 0 Left 0
WINDOW 39 0 0 Left 0
SYMATTR InstName V2
SYMATTR Value 12V
SYMBOL OpAmps\\AD8226 400 768 R0
SYMATTR InstName U4
SYMBOL res 256 720 R0
SYMATTR InstName R8
SYMATTR Value 470
SYMBOL voltage -192 672 R0
WINDOW 123 0 0 Left 0
WINDOW 39 0 0 Left 0
SYMATTR InstName V3
SYMATTR Value 1
SYMBOL voltage -352 672 R0
WINDOW 123 0 0 Left 0
WINDOW 39 0 0 Left 0
SYMATTR InstName V4
SYMATTR Value 0
TEXT 144 -48 Left 2 ;Instrumentenverstärker aus drei Operationsverstärkern
TEXT 264 576 Left 2 ;Integrierter Instrumentenverstärker
TEXT -424 950 Left 2 !.ac dec 100 1 100k
LINE Normal -80 -80 -80 528 2
LINE Normal 976 -80 -80 -80 2
LINE Normal 976 528 976 -80 2
LINE Normal -80 528 976 528 2
LINE Normal -80 944 -80 528 2
LINE Normal 976 944 -80 944 2
LINE Normal 976 528 976 944 2
