Version 4
SHEET 1 2100 680
WIRE 128 -608 32 -608
WIRE 368 -608 256 -608
WIRE 32 -592 32 -608
WIRE 368 -528 368 -608
WIRE 128 -512 32 -512
WIRE 288 -512 256 -512
WIRE 32 -496 32 -512
WIRE 288 -480 288 -512
WIRE 288 -480 256 -480
WIRE 368 -384 368 -448
WIRE 368 -384 256 -384
WIRE 368 -368 368 -384
WIRE 1152 -32 1056 -32
WIRE 1376 -32 1280 -32
WIRE 1440 -32 1376 -32
WIRE 1504 -32 1440 -32
WIRE 1616 -32 1568 -32
WIRE 1712 -32 1616 -32
WIRE 1808 -32 1712 -32
WIRE 1920 -32 1808 -32
WIRE 1056 -16 1056 -32
WIRE 1504 48 1472 48
WIRE 1616 48 1616 -32
WIRE 1616 48 1568 48
WIRE 1712 48 1712 -32
WIRE 1808 48 1808 -32
WIRE 1152 64 1056 64
WIRE 1344 64 1280 64
WIRE 144 80 32 80
WIRE 368 80 272 80
WIRE 400 80 368 80
WIRE 32 96 32 80
WIRE 1376 96 1376 -32
WIRE 1376 96 1280 96
WIRE 1056 112 1056 64
WIRE 1440 128 1440 -32
WIRE 1504 128 1440 128
WIRE 1616 128 1568 128
WIRE 400 144 400 80
WIRE 144 176 32 176
WIRE 352 176 272 176
WIRE 1344 192 1344 64
WIRE 1344 192 1280 192
WIRE 368 208 368 80
WIRE 368 208 272 208
WIRE 1344 208 1344 192
WIRE 1472 208 1472 48
WIRE 1472 208 1344 208
WIRE 1504 208 1472 208
WIRE 1616 208 1616 128
WIRE 1616 208 1568 208
WIRE 1712 208 1712 112
WIRE 1712 208 1616 208
WIRE 1808 208 1808 112
WIRE 1808 208 1712 208
WIRE 1808 256 1808 208
WIRE 352 304 352 176
WIRE 352 304 272 304
WIRE 400 304 400 224
WIRE 400 304 352 304
WIRE 32 320 32 176
WIRE 352 320 352 304
FLAG 32 320 0
FLAG 352 320 0
FLAG 1056 112 0
FLAG 1808 256 0
FLAG 1920 -32 Ausgang
IOPIN 1920 -32 Out
FLAG 32 -496 0
FLAG 368 -368 0
SYMBOL SedlbauerAG\\SAG_826007 144 80 R0
SYMATTR InstName U1
SYMBOL res 384 128 R0
SYMATTR InstName R1
SYMATTR Value 14
SYMBOL voltage 32 80 R0
WINDOW 123 0 0 Left 0
WINDOW 39 0 0 Left 0
SYMATTR InstName V1
SYMATTR Value SINE(0 325 50)
SYMBOL voltage 1056 -32 R0
WINDOW 3 -219 56 Left 2
WINDOW 123 0 0 Left 0
WINDOW 39 0 0 Left 0
SYMATTR Value SINE(0 325 50)
SYMATTR InstName V2
SYMBOL SedlbauerAG\\SAG_826007 1152 -32 R0
SYMATTR InstName U2
SYMBOL diode 1504 -48 M90
WINDOW 0 0 32 VBottom 2
WINDOW 3 32 32 VTop 2
SYMATTR InstName D1
SYMATTR Value MURS320
SYMBOL diode 1504 32 M90
WINDOW 0 0 32 VBottom 2
WINDOW 3 32 32 VTop 2
SYMATTR InstName D2
SYMATTR Value MURS320
SYMBOL diode 1568 112 R90
WINDOW 0 0 32 VBottom 2
WINDOW 3 32 32 VTop 2
SYMATTR InstName D3
SYMATTR Value MURS320
SYMBOL diode 1568 192 R90
WINDOW 0 0 32 VBottom 2
WINDOW 3 32 32 VTop 2
SYMATTR InstName D4
SYMATTR Value MURS320
SYMBOL Misc\\EuropeanPolcap 1696 48 R0
SYMATTR InstName C1
SYMATTR Value 1000µ
SYMATTR SpiceLine V=16 Irms=1.41 Rser=0.047 Lser=0 mfg="Nichicon" pn="UPL1C102MPH" type="Al electrolytic"
SYMBOL load 1792 48 R0
WINDOW 123 0 0 Left 0
WINDOW 39 0 0 Left 0
SYMATTR InstName I1
SYMATTR Value 1
SYMBOL SedlbauerAG\\SAG_826007 128 -608 R0
SYMATTR InstName U3
SYMBOL voltage 32 -608 R0
WINDOW 123 0 0 Left 0
WINDOW 39 0 0 Left 0
SYMATTR InstName V3
SYMATTR Value SINE(0 325 50)
SYMBOL res 352 -544 R0
SYMATTR InstName R2
SYMATTR Value 22
TEXT 0 344 Left 2 !.tran 0 0.9 0.8 startup
TEXT -8 368 Left 2 !;tran 100m startup
